Power_Regulator
*SPICE Netlist generated by Advanced Sim server on 8/4/2023 10:24:28 PM
.options MixedSimGenerated

.SAVE allV
.SAVE allI
.SAVE allP

.PLOT {V(+12)} =PLOT(1) =AXIS(1)

*Selected Circuit Analyses:
.TRAN 20.00n 5.000u 0 20.00n
.OP

.END